*SPEF "ieee 1481-1999"
*DESIGN "sequence_detector_110"
*DATE "14:32:45 Wednesday March 12, 2025"
*VENDOR "The OpenROAD Project"
*PROGRAM "OpenROAD"
*VERSION "v2.0-17198-g8396d0866"
*DESIGN_FLOW "NAME_SCOPE LOCAL" "PIN_CAP NONE"
*DIVIDER /
*DELIMITER :
*BUS_DELIMITER []
*T_UNIT 1 NS
*C_UNIT 1 PF
*R_UNIT 1 OHM
*L_UNIT 1 HENRY

*NAME_MAP
*1 _00_
*2 _01_
*3 _02_
*4 _03_
*5 _04_
*6 _05_
*7 _06_
*8 _07_
*9 clk_i
*10 current_state\[0\]
*11 current_state\[1\]
*12 current_state\[2\]
*13 detect
*14 reset_i
*15 seq_in
*18 net1
*19 net2
*20 net3
*21 clknet_0_clk_i
*22 clknet_1_0__leaf_clk_i
*23 clknet_1_1__leaf_clk_i
*24 _08_
*25 _09_
*26 _10_
*27 _11_
*28 _12_
*29 _13_
*30 _14_
*31 _15_
*32 current_state\[0\]\$_DFF_P_
*33 current_state\[1\]\$_DFF_P_
*34 current_state\[2\]\$_DFF_P_
*35 current_state\[3\]\$_DFF_P_
*36 TAP_TAPCELL_ROW_0_0
*37 TAP_TAPCELL_ROW_0_1
*38 TAP_TAPCELL_ROW_1_2
*39 TAP_TAPCELL_ROW_2_3
*40 TAP_TAPCELL_ROW_3_4
*41 TAP_TAPCELL_ROW_4_5
*42 TAP_TAPCELL_ROW_5_6
*43 TAP_TAPCELL_ROW_6_7
*44 TAP_TAPCELL_ROW_7_8
*45 TAP_TAPCELL_ROW_8_9
*46 TAP_TAPCELL_ROW_9_10
*47 TAP_TAPCELL_ROW_10_11
*48 TAP_TAPCELL_ROW_11_12
*49 TAP_TAPCELL_ROW_11_13
*50 input1
*51 input2
*52 output3
*53 clkbuf_0_clk_i
*54 clkbuf_1_0__f_clk_i
*55 clkbuf_1_1__f_clk_i
*56 FILLER_0_0
*57 FILLER_0_8
*58 FILLER_0_16
*59 FILLER_0_24
*60 FILLER_0_28
*61 FILLER_0_31
*62 FILLER_0_39
*63 FILLER_0_47
*64 FILLER_0_55
*65 FILLER_0_59
*66 FILLER_0_61
*67 FILLER_0_69
*68 FILLER_1_0
*69 FILLER_1_8
*70 FILLER_1_16
*71 FILLER_1_24
*72 FILLER_1_32
*73 FILLER_1_40
*74 FILLER_1_48
*75 FILLER_1_56
*76 FILLER_1_61
*77 FILLER_1_69
*78 FILLER_2_0
*79 FILLER_2_8
*80 FILLER_2_16
*81 FILLER_2_24
*82 FILLER_2_28
*83 FILLER_2_31
*84 FILLER_2_39
*85 FILLER_2_47
*86 FILLER_2_55
*87 FILLER_2_63
*88 FILLER_2_71
*89 FILLER_2_75
*90 FILLER_3_0
*91 FILLER_3_8
*92 FILLER_3_16
*93 FILLER_3_24
*94 FILLER_3_32
*95 FILLER_3_40
*96 FILLER_3_44
*97 FILLER_3_51
*98 FILLER_3_59
*99 FILLER_3_61
*100 FILLER_3_69
*101 FILLER_4_0
*102 FILLER_4_8
*103 FILLER_4_16
*104 FILLER_4_20
*105 FILLER_4_22
*106 FILLER_4_26
*107 FILLER_4_47
*108 FILLER_4_64
*109 FILLER_4_72
*110 FILLER_4_76
*111 FILLER_5_0
*112 FILLER_5_4
*113 FILLER_5_8
*114 FILLER_5_16
*115 FILLER_5_20
*116 FILLER_5_22
*117 FILLER_5_53
*118 FILLER_5_55
*119 FILLER_5_59
*120 FILLER_5_61
*121 FILLER_5_65
*122 FILLER_5_69
*123 FILLER_6_0
*124 FILLER_6_8
*125 FILLER_6_16
*126 FILLER_6_24
*127 FILLER_6_26
*128 FILLER_6_31
*129 FILLER_6_51
*130 FILLER_6_59
*131 FILLER_6_67
*132 FILLER_6_75
*133 FILLER_7_0
*134 FILLER_7_8
*135 FILLER_7_12
*136 FILLER_7_19
*137 FILLER_7_43
*138 FILLER_7_51
*139 FILLER_7_59
*140 FILLER_7_61
*141 FILLER_7_69
*142 FILLER_8_0
*143 FILLER_8_8
*144 FILLER_8_16
*145 FILLER_8_24
*146 FILLER_8_28
*147 FILLER_8_31
*148 FILLER_8_39
*149 FILLER_8_47
*150 FILLER_8_55
*151 FILLER_8_63
*152 FILLER_8_71
*153 FILLER_8_75
*154 FILLER_9_0
*155 FILLER_9_8
*156 FILLER_9_16
*157 FILLER_9_24
*158 FILLER_9_32
*159 FILLER_9_40
*160 FILLER_9_48
*161 FILLER_9_56
*162 FILLER_9_61
*163 FILLER_9_69
*164 FILLER_10_0
*165 FILLER_10_8
*166 FILLER_10_16
*167 FILLER_10_24
*168 FILLER_10_28
*169 FILLER_10_31
*170 FILLER_10_39
*171 FILLER_10_47
*172 FILLER_10_55
*173 FILLER_10_63
*174 FILLER_10_71
*175 FILLER_10_75
*176 FILLER_11_0
*177 FILLER_11_8
*178 FILLER_11_16
*179 FILLER_11_24
*180 FILLER_11_28
*181 FILLER_11_31
*182 FILLER_11_39
*183 FILLER_11_47
*184 FILLER_11_55
*185 FILLER_11_59
*186 FILLER_11_61
*187 FILLER_11_69

*PORTS
clk_i I
detect O
reset_i I
seq_in I

*D_NET *1 0.000457106
*CONN
*I *33:D I *D sky130_fd_sc_hd__dfxtp_1
*I *28:Y O *D sky130_fd_sc_hd__nor2_1
*CAP
1 *33:D 0.000213589
2 *28:Y 0.000213589
3 *33:D *34:CLK 0
4 *33:D *54:A 2.99287e-05
*RES
1 *28:Y *33:D 32.0416 
*END

*D_NET *2 0.000616344
*CONN
*I *34:D I *D sky130_fd_sc_hd__dfxtp_1
*I *31:Y O *D sky130_fd_sc_hd__nor2_1
*CAP
1 *34:D 0.000159261
2 *31:Y 0.000159261
3 *34:D *28:B 7.45404e-05
4 *34:D *31:A 7.50872e-05
5 *34:D *31:B 3.14978e-05
6 *34:D *34:CLK 1.07248e-05
7 *34:D *7:12 8.61693e-06
8 *34:D *18:8 9.73548e-05
*RES
1 *31:Y *34:D 32.0416 
*END

*D_NET *3 0.000619844
*CONN
*I *35:D I *D sky130_fd_sc_hd__dfxtp_1
*I *29:Y O *D sky130_fd_sc_hd__nor3b_1
*CAP
1 *35:D 0.00024104
2 *29:Y 0.00024104
3 *35:D *24:A 1.79672e-05
4 *35:D *24:B 2.54559e-05
5 *35:D *29:B 1.41976e-05
6 *35:D *29:C_N 7.69424e-05
7 *35:D *32:D 0
8 *35:D *23:10 3.20069e-06
*RES
1 *29:Y *35:D 32.5962 
*END

*D_NET *4 0.00178349
*CONN
*I *32:D I *D sky130_fd_sc_hd__dfxtp_1
*I *27:Y O *D sky130_fd_sc_hd__a21boi_0
*CAP
1 *32:D 0.000393397
2 *27:Y 0.000393397
3 *32:D *24:A 0.000146645
4 *32:D *24:B 0.000169108
5 *32:D *25:A 0
6 *32:D *29:A 0
7 *32:D *32:CLK 0.000594884
8 *32:D *55:A 0
9 *32:D *5:12 7.50872e-05
10 *32:D *23:10 1.09738e-05
11 *35:D *32:D 0
*RES
1 *27:Y *32:D 40.2217 
*END

*D_NET *5 0.00206372
*CONN
*I *27:A1 I *D sky130_fd_sc_hd__a21boi_0
*I *28:A I *D sky130_fd_sc_hd__nor2_1
*I *24:Y O *D sky130_fd_sc_hd__nor2_1
*CAP
1 *27:A1 6.42494e-05
2 *28:A 0.000337652
3 *24:Y 0.000120951
4 *5:12 0.000522853
5 *27:A1 *25:B 4.56831e-05
6 *28:A *25:B 3.82228e-05
7 *28:A *30:A 4.33655e-05
8 *28:A *34:CLK 0
9 *28:A *54:A 0.000589639
10 *5:12 *25:A 0
11 *5:12 *27:B1_N 0.000151741
12 *5:12 *11:10 9.22013e-06
13 *5:12 *18:23 6.50586e-05
14 *32:D *5:12 7.50872e-05
*RES
1 *24:Y *5:12 22.0503 
2 *5:12 *28:A 27.7385 
3 *5:12 *27:A1 11.1059 
*END

*D_NET *6 0.000161188
*CONN
*I *27:A2 I *D sky130_fd_sc_hd__a21boi_0
*I *25:Y O *D sky130_fd_sc_hd__nor2_1
*CAP
1 *27:A2 4.59585e-05
2 *25:Y 4.59585e-05
3 *27:A2 *25:B 6.92705e-05
*RES
1 *25:Y *27:A2 19.7763 
*END

*D_NET *7 0.00294151
*CONN
*I *27:B1_N I *D sky130_fd_sc_hd__a21boi_0
*I *28:B I *D sky130_fd_sc_hd__nor2_1
*I *31:A I *D sky130_fd_sc_hd__nor2_1
*I *26:Y O *D sky130_fd_sc_hd__nand2b_1
*CAP
1 *27:B1_N 5.72712e-05
2 *28:B 0.000136289
3 *31:A 7.79038e-05
4 *26:Y 0.000564158
5 *7:12 0.000721079
6 *27:B1_N *55:A 4.61732e-05
7 *27:B1_N *11:10 3.31882e-05
8 *28:B *30:B 0
9 *28:B *31:B 0.000220955
10 *28:B *34:CLK 6.71887e-05
11 *28:B *54:A 8.70885e-05
12 *31:A *31:B 0.000123582
13 *7:12 *26:B 6.49539e-05
14 *7:12 *29:C_N 0.000275256
15 *7:12 *18:8 0.000137223
16 *7:12 *18:23 1.9216e-05
17 *34:D *28:B 7.45404e-05
18 *34:D *31:A 7.50872e-05
19 *34:D *7:12 8.61693e-06
20 *5:12 *27:B1_N 0.000151741
*RES
1 *26:Y *7:12 24.6483 
2 *7:12 *31:A 16.4116 
3 *7:12 *28:B 19.3507 
4 *26:Y *27:B1_N 30.1608 
*END

*D_NET *8 0.00159534
*CONN
*I *31:B I *D sky130_fd_sc_hd__nor2_1
*I *30:Y O *D sky130_fd_sc_hd__nor2_1
*CAP
1 *31:B 0.000566797
2 *30:Y 0.000566797
3 *31:B *30:B 0
4 *31:B *54:A 8.57121e-05
5 *28:B *31:B 0.000220955
6 *31:A *31:B 0.000123582
7 *34:D *31:B 3.14978e-05
*RES
1 *30:Y *31:B 40.0845 
*END

*D_NET *9 0.00271653
*CONN
*P clk_i I
*I *53:A I *D sky130_fd_sc_hd__clkbuf_4
*CAP
1 clk_i 0.00123499
2 *53:A 0.00123499
3 *53:A *50:A 0.000246543
*RES
1 clk_i *53:A 20.7557 
*END

*D_NET *10 0.00035923
*CONN
*I *24:A I *D sky130_fd_sc_hd__nor2_1
*I *32:Q O *D sky130_fd_sc_hd__dfxtp_1
*CAP
1 *24:A 9.7309e-05
2 *32:Q 9.7309e-05
3 *24:A *29:A 0
4 *32:D *24:A 0.000146645
5 *35:D *24:A 1.79672e-05
*RES
1 *32:Q *24:A 30.1608 
*END

*D_NET *11 0.00116527
*CONN
*I *25:B I *D sky130_fd_sc_hd__nor2_1
*I *30:A I *D sky130_fd_sc_hd__nor2_1
*I *33:Q O *D sky130_fd_sc_hd__dfxtp_1
*CAP
1 *25:B 0.000122754
2 *30:A 0.000163569
3 *33:Q 0.000108386
4 *11:10 0.000394709
5 *30:A *54:A 0.000136905
6 *27:A1 *25:B 4.56831e-05
7 *27:A2 *25:B 6.92705e-05
8 *27:B1_N *11:10 3.31882e-05
9 *28:A *25:B 3.82228e-05
10 *28:A *30:A 4.33655e-05
11 *5:12 *11:10 9.22013e-06
*RES
1 *33:Q *11:10 20.9116 
2 *11:10 *30:A 14.6264 
3 *11:10 *25:B 12.7456 
*END

*D_NET *12 0.0022998
*CONN
*I *30:B I *D sky130_fd_sc_hd__nor2_1
*I *29:C_N I *D sky130_fd_sc_hd__nor3b_1
*I *34:Q O *D sky130_fd_sc_hd__dfxtp_1
*CAP
1 *30:B 0.000269999
2 *29:C_N 0.000351924
3 *34:Q 0.000621924
4 *29:C_N *26:B 0.000328846
5 *29:C_N *29:B 9.32064e-05
6 *30:B *55:A 0
7 *30:B *18:8 0.0002817
8 *28:B *30:B 0
9 *31:B *30:B 0
10 *35:D *29:C_N 7.69424e-05
11 *7:12 *29:C_N 0.000275256
*RES
1 *34:Q *29:C_N 27.7819 
2 *34:Q *30:B 32.6874 
*END

*D_NET *13 0.000851309
*CONN
*P detect O
*I *52:X O *D sky130_fd_sc_hd__clkbuf_1
*CAP
1 detect 0.000260972
2 *52:X 0.000260972
3 detect *51:A 0.000329366
*RES
1 *52:X detect 19.3289 
*END

*D_NET *14 0.000558148
*CONN
*P reset_i I
*I *50:A I *D sky130_fd_sc_hd__clkbuf_1
*CAP
1 reset_i 0.000155802
2 *50:A 0.000155802
3 *53:A *50:A 0.000246543
*RES
1 reset_i *50:A 18.2481 
*END

*D_NET *15 0.00118321
*CONN
*P seq_in I
*I *51:A I *D sky130_fd_sc_hd__clkbuf_1
*CAP
1 seq_in 0.000426921
2 *51:A 0.000426921
3 detect *51:A 0.000329366
*RES
1 seq_in *51:A 19.1103 
*END

*D_NET *18 0.00344088
*CONN
*I *25:A I *D sky130_fd_sc_hd__nor2_1
*I *29:A I *D sky130_fd_sc_hd__nor3b_1
*I *26:A_N I *D sky130_fd_sc_hd__nand2b_1
*I *50:X O *D sky130_fd_sc_hd__clkbuf_1
*CAP
1 *25:A 9.55013e-05
2 *29:A 7.3573e-05
3 *26:A_N 2.06324e-05
4 *50:X 0.00075764
5 *18:23 0.000454045
6 *18:8 0.00106324
7 *26:A_N *26:B 0
8 *18:23 *26:B 0.000375697
9 *24:A *29:A 0
10 *30:B *18:8 0.0002817
11 *32:D *25:A 0
12 *32:D *29:A 0
13 *34:D *18:8 9.73548e-05
14 *5:12 *25:A 0
15 *5:12 *18:23 6.50586e-05
16 *7:12 *18:8 0.000137223
17 *7:12 *18:23 1.9216e-05
*RES
1 *50:X *18:8 28.8532 
2 *18:8 *26:A_N 9.82786 
3 *18:8 *18:23 11.5169 
4 *18:23 *29:A 15.1659 
5 *18:23 *25:A 15.9964 
*END

*D_NET *19 0.00161247
*CONN
*I *26:B I *D sky130_fd_sc_hd__nand2b_1
*I *29:B I *D sky130_fd_sc_hd__nor3b_1
*I *51:X O *D sky130_fd_sc_hd__clkbuf_1
*CAP
1 *26:B 0.000201051
2 *29:B 6.60312e-05
3 *51:X 0.000100701
4 *19:6 0.000367783
5 *26:A_N *26:B 0
6 *29:C_N *26:B 0.000328846
7 *29:C_N *29:B 9.32064e-05
8 *35:D *29:B 1.41976e-05
9 *7:12 *26:B 6.49539e-05
10 *18:23 *26:B 0.000375697
*RES
1 *51:X *19:6 11.6364 
2 *19:6 *29:B 11.6605 
3 *19:6 *26:B 19.0029 
*END

*D_NET *20 0.00252032
*CONN
*I *52:A I *D sky130_fd_sc_hd__clkbuf_1
*I *24:B I *D sky130_fd_sc_hd__nor2_1
*I *35:Q O *D sky130_fd_sc_hd__dfxtp_1
*CAP
1 *52:A 0.000314248
2 *24:B 0.000779453
3 *35:Q 0
4 *20:4 0.0010937
5 *24:B *32:CLK 6.73186e-05
6 *24:B *35:CLK 2.65831e-05
7 *24:B *55:A 4.44553e-05
8 *32:D *24:B 0.000169108
9 *35:D *24:B 2.54559e-05
*RES
1 *35:Q *20:4 9.24915 
2 *20:4 *24:B 32.7807 
3 *20:4 *52:A 23.8535 
*END

*D_NET *21 0.00325234
*CONN
*I *55:A I *D sky130_fd_sc_hd__clkbuf_4
*I *54:A I *D sky130_fd_sc_hd__clkbuf_4
*I *53:X O *D sky130_fd_sc_hd__clkbuf_4
*CAP
1 *55:A 0.000537371
2 *54:A 0.000578847
3 *53:X 0.00111622
4 *54:A *34:CLK 0
5 *55:A *23:10 0
6 *24:B *55:A 4.44553e-05
7 *27:B1_N *55:A 4.61732e-05
8 *28:A *54:A 0.000589639
9 *28:B *54:A 8.70885e-05
10 *30:A *54:A 0.000136905
11 *30:B *55:A 0
12 *31:B *54:A 8.57121e-05
13 *32:D *55:A 0
14 *33:D *54:A 2.99287e-05
*RES
1 *53:X *54:A 45.912 
2 *53:X *55:A 39.6806 
*END

*D_NET *22 0.00106558
*CONN
*I *33:CLK I *D sky130_fd_sc_hd__dfxtp_1
*I *34:CLK I *D sky130_fd_sc_hd__dfxtp_1
*I *54:X O *D sky130_fd_sc_hd__clkbuf_4
*CAP
1 *33:CLK 0.000100075
2 *34:CLK 0.000266311
3 *54:X 0.000127449
4 *22:6 0.000493835
5 *28:A *34:CLK 0
6 *28:B *34:CLK 6.71887e-05
7 *33:D *34:CLK 0
8 *34:D *34:CLK 1.07248e-05
9 *54:A *34:CLK 0
*RES
1 *54:X *22:6 12.191 
2 *22:6 *34:CLK 25.0642 
3 *22:6 *33:CLK 11.6364 
*END

*D_NET *23 0.00144813
*CONN
*I *35:CLK I *D sky130_fd_sc_hd__dfxtp_1
*I *32:CLK I *D sky130_fd_sc_hd__dfxtp_1
*I *55:X O *D sky130_fd_sc_hd__clkbuf_4
*CAP
1 *35:CLK 2.14895e-05
2 *32:CLK 0.000255446
3 *55:X 9.56496e-05
4 *23:10 0.000372585
5 *24:B *32:CLK 6.73186e-05
6 *24:B *35:CLK 2.65831e-05
7 *32:D *32:CLK 0.000594884
8 *32:D *23:10 1.09738e-05
9 *35:D *23:10 3.20069e-06
10 *55:A *23:10 0
*RES
1 *55:X *23:10 20.4964 
2 *23:10 *32:CLK 18.2916 
3 *23:10 *35:CLK 9.97254 
*END
